/*--------------------------------*- C++ -*----------------------------------*\
| =========                 |                                                 |
| \\      /  F ield         | OpenFOAM: The Open Source CFD Toolbox           |
|  \\    /   O peration     | Version:  v2412                                 |
|   \\  /    A nd           | Website:  www.openfoam.com                      |
|    \\/     M anipulation  |                                                 |
\*---------------------------------------------------------------------------*/
FoamFile
{
    version     2.0;
    format      ascii;
    class       dictionary;
    object      blockMeshDict;
}
// * * * * * * * * * * * * * * * * * * * * * * * * * * * * * * * * * * * * * //

scale   1;

vertices
(
    (0   0   0)
    (100 0   0)
    (0   5   0)
    (5   5   0)
    (95  5   0)
    (100 5   0)
    (0   95  0)
    (5   95  0)
    (95  95  0)
    (100 95  0)
    (0   100 0)
    (100 100 0)
    (0   0   1)
    (100 0   1)
    (0   5   1)
    (5   5   1)
    (95  5   1)
    (100 5   1)
    (0   95  1)
    (5   95  1)
    (95  95  1)
    (100 95  1)
    (0   100 1)
    (100 100 1)
);

blocks
(
    hex (0 1 2 5 12 13 14 17) (120 10 1) simpleGrading (1 1 1)    // 1
    hex (2 3 6 7 14 15 18 19) (10 100 1) simpleGrading (1 1 1)    // 2
    hex (4 5 8 9 16 17 19 21) (10 100 1) simpleGrading (1 1 1)    // 3
    hex (6 9 10 11 18 21 22 23) (120 10 1) simpleGrading (1 1 1)  // 4
);

edges
(
);

boundary
(
    floor
    {
        type wall;
        faces
        (
            (0 12 13 1)
        );
    }

    ceiling
    {
        type wall;
        faces
        (
            (10 11 13 22)
        );
    }

    sideWalls
    {
        type wall;
        faces
        (
            (0 2 14 12)
            (1 13 23 11)
        );
    }

    innerWalls
    {
        type wall;
        faces
        (
            (3 4 16 15)
            (3 15 19 7)
            (4 8 20 16)
            (7 8 20 19)
        );
    }

    frontAndBack
    {
        type empty;
        faces
        (
            (6 9 11 10)
            (4 5 9 8)
            (0 1 5 2)
            (3 4 7 6)
            (22 23 21 18)
            (18 19 15 14)
            (20 21 17 16)
            (12 14 17 13)
        );
    }
);

mergePatchPairs
(
);


// ************************************************************************* //
