/*--------------------------------*- C++ -*----------------------------------*\
| =========                 |                                                 |
| \\      /  F ield         | OpenFOAM: The Open Source CFD Toolbox           |
|  \\    /   O peration     | Version:  v2412                                 |
|   \\  /    A nd           | Website:  www.openfoam.com                      |
|    \\/     M anipulation  |                                                 |
\*---------------------------------------------------------------------------*/
FoamFile
{
    version     2.0;
    format      ascii;
    class       dictionary;
    object      blockMeshDict;
}
// * * * * * * * * * * * * * * * * * * * * * * * * * * * * * * * * * * * * * //

scale   1;

vertices
(
    (0   0   0)
    (5   0   0)
    (95  0   0)
    (100 0   0)
    (0   5   0)
    (5   5   0)
    (95  5   0)
    (100 5   0)
    (0   95  0)
    (5   95  0)
    (95  95  0)
    (100 95  0)
    (0   100 0)
    (5   100 0)
    (95  100 0)
    (100 100 0)
    (0   0   1)
    (5   0   1)
    (95  0   1)
    (100 0   1)
    (0   5   1)
    (5   5   1)
    (95  5   1)
    (100 5   1)
    (0   95  1)
    (5   95  1)
    (95  95  1)
    (100 95  1)
    (0   100 1)
    (5   100 1)
    (95  100 1)
    (100 100 1)
);

blocks
(
    hex (0 1 5 4 16 17 21 20) (10 10 1) simpleGrading (1 1 1)    // 1
    hex (1 2 6 5 17 18 21 22) (100 10 1) simpleGrading (1 1 1)    // 2
    hex (2 3 7 6 18 19 23 22) (10 10 1) simpleGrading (1 1 1)    // 3
    hex (4 5 9 8 20 21 25 24) (10 100 1) simpleGrading (1 1 1)    // 4
    hex (6 7 11 10 22 23 27 26) (10 100 1) simpleGrading (1 1 1)    // 5
    hex (8 9 13 12 24 25 29 28) (10 10 1) simpleGrading (1 1 1)    // 6
    hex (9 10 14 13 25 26 30 29) (10 10 1) simpleGrading (1 1 1)    // 7
    hex (10 11 15 14 26 27 31 30) (10 10 1) simpleGrading (1 1 1)    // 8
);

edges
(
);

boundary
(
    floor_heater
    {
        type wall;
        faces
        (
            (0 16 17 1)
        );
    }

    ceiling_sink
    {
        type wall;
        faces
        (
            (14 15 31 30)
        );
    }


    outerWalls
    {
        type wall;
        faces
        (
            // Left wall
            (0 4 20 16)
            (4 8 24 20)
            (8 12 28 24)
            // non - heated ceiling
            (12 13 29 28)
            (13 14 30 29)
            // Right wall
            (3 19 23 7)
            (7 23 27 11)
            (11 27 31 15)
            // non - heated bottom
            (1 17 18 2)
            (2 18 19 3)
        );
    }

    innerWalls
    {
        type wall;
        faces
        (
            (5 6 22 21)
            (5 21 25 9)
            (6 10 26 22)
            (9 25 26 10)
        );
    }

    frontAndBack
    {
        type empty;
        faces
        (
            (16 20 21 17)
            (17 21 22 18)
            (18 22 23 19)
            (22 26 27 23)
            (26 30 31 27)
            (25 29 30 26)
            (24 28 29 25)
            (20 24 25 21)
            (0 1 5 4)
            (1 2 6 5)
            (2 3 7 6)
            (6 7 11 10)
            (10 11 15 14)
            (9 10 14 13)
            (8 9 13 12)
            (4 5 9 8)
        );
    }
);

mergePatchPairs
(
);


// ************************************************************************* //
