/*--------------------------------*- C++ -*----------------------------------*\
| =========                 |                                                 |
| \\      /  F ield         | OpenFOAM: The Open Source CFD Toolbox           |
|  \\    /   O peration     | Version:  v2412                                 |
|   \\  /    A nd           | Website:  www.openfoam.com                      |
|    \\/     M anipulation  |                                                 |
\*---------------------------------------------------------------------------*/
FoamFile
{
    version     2.0;
    format      ascii;
    class       volScalarField;
    object      T;
}
// * * * * * * * * * * * * * * * * * * * * * * * * * * * * * * * * * * * * * //

dimensions      [0 0 0 1 0 0 0];

internalField   uniform 300;

boundaryField
{
    floor_heater
    {
        type            fixedValue;
        value           uniform 301;
    }

    ceiling_sink
    {
        type            fixedValue;
        value           uniform 300;
    }

    outerWalls
    {
        type            zeroGradient;
    }

    innerWalls
    {
        type            zeroGradient;
    }

    frontAndBack
    {
        type            empty;
    }

}


// ************************************************************************* //
